
  EPA STORM WATER MANAGEMENT MODEL - VERSION 5.1 (Build 5.1.008)
  --------------------------------------------------------------

  Example User5 
  
  *************
  Element Count
  *************
  Number of rain gages ...... 1
  Number of subcatchments ... 145
  Number of nodes ........... 200
  Number of links ........... 276
  Number of pollutants ...... 0
  Number of land uses ....... 0
  
  
  ****************
  Raingage Summary
  ****************
                                                      Data       Recording
  Name                 Data Source                    Type       Interval 
  ------------------------------------------------------------------------
  GAGE1                RainSeries1                    VOLUME       3 min.
  
  
  ********************
  Subcatchment Summary
  ********************
  Name                       Area     Width   %Imperv    %Slope Rain Gage            Outlet              
  -----------------------------------------------------------------------------------------------------------
  1SB5#1                     5.34    125.00     44.40    0.7165 GAGE1                1SB5                
  2SB5#1                     3.44     75.00     46.50    0.4004 GAGE1                2SB5                
  1SB23#1                    7.70    125.00     47.90    0.7950 GAGE1                1SB23               
  2SB23#1                    6.45    150.00     33.90    1.0678 GAGE1                2SB23               
  4SB23#1                    4.09    100.00     44.80    0.2994 GAGE1                4SB23               
  3SB23#1                    5.89    200.00     40.60    0.4157 GAGE1                3SB23               
  49SB1#1                   13.00    250.00     16.40    1.1184 GAGE1                49SB1               
  51SB1#1                    1.25    100.00     48.80    0.7346 GAGE1                51SB1               
  1121#1                    21.30    200.00     32.70    0.7545 GAGE1                1121                
  6SB3#1                     3.40    150.00     29.90    0.4051 GAGE1                6SB3                
  4SB3#1                     2.80    100.00     40.70    0.3280 GAGE1                4SB3                
  5SB3#1                     2.45    100.00     38.10    0.4997 GAGE1                5SB3                
  3SB3#1                     2.29    125.00     48.10    0.8354 GAGE1                3SB3                
  2SB3#1                     2.53    100.00     38.80    0.7259 GAGE1                2SB3                
  8SB3_OF#1                  4.35    300.00      9.60    0.8444 GAGE1                8SB3_OF             
  1SB4#1                     2.23    100.00     44.90    0.6863 GAGE1                1SB4                
  2SB4#1                     1.53     75.00     46.30    0.3001 GAGE1                2SB4                
  44SB1#1                    5.87    100.00     37.20    0.1564 GAGE1                44SB1               
  45SB1#1                    5.22    175.00     32.50    0.2052 GAGE1                45SB1               
  43SB1#1                    4.50    100.00     50.20    0.6802 GAGE1                43SB1               
  8SB1#1                    10.25    150.00     22.00    0.2688 GAGE1                8SB1                
  6SB1#1                     7.47    150.00      7.60    1.0449 GAGE1                6SB1                
  2SB1#1                     3.16     25.00     84.50    0.2906 GAGE1                2SB1                
  3SB1#1                     7.03    100.00     34.40    0.4354 GAGE1                3SB1                
  4SB1#1                    10.96    150.00     27.60    0.2514 GAGE1                4SB1                
  5SB1#1                    16.04    250.00     23.60    1.1450 GAGE1                5SB1                
  7SB1#1                    10.19    200.00     26.10    0.4806 GAGE1                7SB1                
  9SB1#1                    11.92    175.00     19.50    0.3595 GAGE1                9SB1                
  11SB1#1                    6.17    100.00     56.20    0.4961 GAGE1                11SB1               
  32SB1#1                    4.27    125.00     51.70    0.0896 GAGE1                32SB1               
  34SB1#1                    8.81    100.00     48.60    0.5906 GAGE1                34SB1               
  39SB1#1                    9.11    150.00     39.20    0.5544 GAGE1                39SB1               
  38SB1#1                    3.56     75.00     45.70    0.1612 GAGE1                38SB1               
  37SB1#1                    3.52    100.00     33.00    0.7826 GAGE1                37SB1               
  35SB1#1                    5.75    125.00     39.40    0.6654 GAGE1                35SB1               
  33SB1#1                    4.46    200.00     39.60    0.1373 GAGE1                33SB1               
  12SB1#1                    6.28    100.00     39.40    0.3412 GAGE1                12SB1               
  22SB1#1                    5.61    100.00     37.30    0.8730 GAGE1                22SB1               
  21SB1#1                   11.39    150.00     31.60    0.8868 GAGE1                21SB1               
  14SB1#1                   10.05    100.00     40.20    0.3655 GAGE1                14SB1               
  13SB1#1                    7.55    150.00     34.40    0.6689 GAGE1                13SB1               
  23SB1#1                   10.53    150.00     33.50    0.1744 GAGE1                23SB1               
  20SB1#1                    8.85    150.00     33.00    1.2451 GAGE1                20SB1               
  24SB1#1                    3.67    200.00     40.40    0.8340 GAGE1                24SB1               
  26SB1#1                    4.02    100.00     32.00    1.5228 GAGE1                26SB1               
  27SB1#1                    4.82    125.00     37.20    0.9526 GAGE1                27SB1               
  28SB1#1                   10.09    125.00     41.10    0.6446 GAGE1                28SB1               
  25SB1#1                   11.92    125.00     39.30    0.7704 GAGE1                25SB1               
  19SB1#1                    5.43    150.00     36.50    0.2537 GAGE1                19SB1               
  18SB1#1                    3.06     75.00     50.60    0.5252 GAGE1                18SB1               
  15SB1#1                    4.12    100.00     39.50    0.4458 GAGE1                15SB1               
  31SB1#1                   10.71    100.00     59.10    0.5716 GAGE1                31SB1               
  40SB1#1                   15.52    250.00     27.00    1.1340 GAGE1                40SB1               
  41SB1#1                   14.19    200.00      2.10    0.9923 GAGE1                41SB1               
  46SB1#1                    6.31    200.00     36.60    0.1940 GAGE1                46SB1               
  4SB5_OF#1                  3.32    300.00     17.30    2.2127 GAGE1                4SB5_OF             
  15SB6#1                   10.57    200.00     44.60    1.0425 GAGE1                15SB6               
  14SB6#1                    4.72     75.00      7.20    0.9728 GAGE1                14SB6               
  12SB6#1                    4.46    250.00     87.90    0.8579 GAGE1                12SB6               
  19SB6#1                    4.97    100.00     31.90    1.9708 GAGE1                19SB6               
  26SB6#1                    2.59    100.00     40.80    0.5909 GAGE1                26SB6               
  25SB6#1                    7.76    125.00     38.20    1.1833 GAGE1                25SB6               
  24SB6#1                    9.64    150.00     39.30    1.5241 GAGE1                24SB6               
  20SB6#1                    3.63    125.00     30.40    1.4756 GAGE1                20SB6               
  18SB6#1                    4.59     75.00     31.00    1.0003 GAGE1                18SB6               
  17SB6#1                    3.52     75.00     56.80    0.6522 GAGE1                17SB6               
  16SB6#1                    7.99    250.00     45.40    0.2873 GAGE1                16SB6               
  11SB6#1                    6.81    150.00     49.40    0.2697 GAGE1                11SB6               
  10SB6#1                    8.85    200.00     73.80    0.1384 GAGE1                10SB6               
  21SB6#1                    4.61    100.00     38.00    0.9296 GAGE1                21SB6               
  22SB6#1                    5.41    125.00     40.30    1.0609 GAGE1                22SB6               
  23SB6#1                    6.79    150.00     46.50    1.0143 GAGE1                23SB6               
  13SB6#1                   12.43    175.00     37.30    0.7757 GAGE1                13SB6               
  7SB6#1                     2.93    100.00     67.20    0.1567 GAGE1                7SB6                
  8SB6#1                     6.83    150.00      6.70    1.0084 GAGE1                8SB6                
  5SB6#1                     5.78    400.00     13.40    0.6355 GAGE1                5SB6                
  4SB6#1                     5.15    100.00     35.50    0.4161 GAGE1                4SB6                
  3SB6#1                     4.26    150.00     36.90    0.2695 GAGE1                3SB6                
  1SB22#1                    4.16     75.00     46.70    0.6070 GAGE1                1SB22               
  2SB22#1                    5.75     75.00     10.30    0.4791 GAGE1                2SB22               
  2SB21#1                    5.63     75.00     14.80    0.5301 GAGE1                2SB21               
  1SB21#1                    3.52     75.00     47.20    1.1087 GAGE1                1SB21               
  1SB20#1                    4.58     75.00     50.70    0.4511 GAGE1                1SB20               
  1SB7#1                     5.47    150.00     24.00    0.8394 GAGE1                1SB7                
  2SB7#1                     1.55     75.00     41.60    0.2222 GAGE1                2SB7                
  3SB7#1                     2.10     75.00     23.10    0.4373 GAGE1                3SB7                
  5SB7_OF#1                  6.38    500.00      8.20    1.9191 GAGE1                5SB7_OF             
  2SB20_OF#1                 6.14    125.00     44.30    1.2467 GAGE1                2SB20_OF            
  1SB19#1                    6.51    125.00     46.30    0.2939 GAGE1                1SB19               
  2SB19#1                    3.35     65.00      3.70    0.7127 GAGE1                2SB19               
  4SB19_OF#1                 2.66    175.00      6.20    3.6248 GAGE1                4SB19_OF            
  4SB9#1                    15.20    250.00     16.00    1.2586 GAGE1                4SB9                
  3SB9#1                     6.58    200.00     10.60    1.1164 GAGE1                3SB9                
  1SB9#1                     9.02    150.00     29.40    0.7126 GAGE1                1SB9                
  SB1018_OF#1                2.25    225.00      9.40    2.4487 GAGE1                SB1018_OF           
  SB1018_OF#2                4.25    450.00     28.20    3.4100 GAGE1                SB1018_OF           
  SB1018_OF#3               11.90    600.00     42.30    1.0400 GAGE1                SB1018_OF           
  17SB11#1                  23.80    200.00     37.00    1.3333 GAGE1                17SB11              
  17SB11#2                  37.20    400.00     22.00    2.0000 GAGE1                17SB11              
  17SB11#3                   9.10    400.00     62.00    2.0000 GAGE1                17SB11              
  16SB11#1                  25.46    250.00     36.50    1.3225 GAGE1                16SB11              
  15SB11#1                  16.92    175.00     28.20    1.4879 GAGE1                15SB11              
  14SB11#1                  11.43    125.00     27.50    1.1381 GAGE1                14SB11              
  13SB11#1                  18.20    300.00     25.90    1.5136 GAGE1                13SB11              
  5SB11#1                    9.00    150.00     59.90    0.7142 GAGE1                5SB11               
  11SB11#1                   7.34    150.00     29.90    1.1260 GAGE1                11SB11              
  10SB11#1                   7.56    150.00     29.10    1.5790 GAGE1                10SB11              
  9SB11#1                    5.96    125.00     14.60    1.9259 GAGE1                9SB11               
  12SB11#1                   6.24     75.00     73.30    0.9565 GAGE1                12SB11              
  8SB11#1                    3.02    100.00     60.90    2.2298 GAGE1                8SB11               
  7SB11#1                    4.18    125.00     77.80    0.5492 GAGE1                7SB11               
  6SB11#1                    9.44    200.00     71.80    0.1297 GAGE1                6SB11               
  4SB11#1                   11.43    225.00     62.30    0.3013 GAGE1                4SB11               
  2SB11#1                   12.82    125.00     62.30    0.5372 GAGE1                2SB11               
  2SB11#2                   16.88    250.00     47.90    1.2920 GAGE1                2SB11               
  5SB17#1                    8.32    150.00     36.50    0.5518 GAGE1                5SB17               
  8SB17#1                    8.81    150.00     26.70    0.7817 GAGE1                8SB17               
  7SB17#1                    7.31    150.00     34.60    0.5025 GAGE1                7SB17               
  6SB17#1                    5.46    150.00     27.20    0.6727 GAGE1                6SB17               
  9SB17#1                    5.53    150.00     16.60    1.6605 GAGE1                9SB17               
  16SB17#1                   4.19    100.00     25.60    0.3653 GAGE1                16SB17              
  10SB17#1                   7.14    150.00     10.10    0.8360 GAGE1                10SB17              
  14SB17#1                   4.52     75.00     27.00    0.3047 GAGE1                14SB17              
  11SB17#1                   4.81    100.00     29.90    1.2727 GAGE1                11SB17              
  13SB17#1                   3.67     30.00      5.20    0.5004 GAGE1                13SB17              
  17SB17#1                   9.07    125.00     17.80    0.1265 GAGE1                17SB17              
  4SB17#1                    6.86    200.00     39.40    0.8032 GAGE1                4SB17               
  3SB17#1                    6.30    125.00     48.80    0.4859 GAGE1                3SB17               
  2SB17#1                    9.23    125.00     40.20    0.5389 GAGE1                2SB17               
  SB1216_OF#1                7.51    150.00     44.40    0.4933 GAGE1                SB1216_OF           
  SB1216_OF#2                3.81    300.00     81.70    0.5400 GAGE1                SB1216_OF           
  1SB14#1                    3.50    125.00     40.80    0.5466 GAGE1                1SB14               
  2SB14#1                   15.93    350.00     24.80    0.6725 GAGE1                2SB14               
  3SB14#1                    6.10    150.00     27.60    0.6774 GAGE1                3SB14               
  4SB14#1                    5.43    175.00     28.90    1.2824 GAGE1                4SB14               
  7SB14#1                    4.78    125.00      6.10    1.0406 GAGE1                7SB14               
  6SB14#1                    3.24     75.00     48.90    1.2045 GAGE1                6SB14               
  5SB14#1                    3.71     75.00      4.20    1.2376 GAGE1                5SB14               
  9SB14#1                    6.12    150.00     34.10    0.7502 GAGE1                9SB14               
  8SB14#1                    2.21     75.00     48.30    0.8310 GAGE1                8SB14               
  10SB14#1                   8.47     75.00     58.20    0.5692 GAGE1                10SB14              
  11SB14_OF#1               18.27    225.00      4.60    0.9067 GAGE1                11SB14_OF           
  11SB14_OF#2               16.65    225.00     42.80    1.0000 GAGE1                11SB14_OF           
  0.10_UP#1                113.00   1200.00     26.00    1.0000 GAGE1                0.10_UP             
  3SB21#1                    4.21     65.00     14.20    0.7089 GAGE1                3SB21               
  
  
  ************
  Node Summary
  ************
                                           Invert      Max.    Ponded    External
  Name                 Type                 Elev.     Depth      Area    Inflow  
  -------------------------------------------------------------------------------
  0.10_RM              JUNCTION            640.60     59.40       0.0
  0.10_UP              JUNCTION            640.70     59.30       0.0
  0.15_RM              JUNCTION            643.90     56.10       0.0
  102                  JUNCTION            684.50     65.50       0.0    Yes
  1050                 JUNCTION            673.33     26.67       0.0
  10SB1                JUNCTION            676.54     73.46       0.0
  10SB11               JUNCTION            692.80     57.20       0.0
  10SB14               JUNCTION            652.00     48.00       0.0
  10SB17               JUNCTION            666.03     33.97       0.0
  10SB6                JUNCTION            680.92     19.08       0.0
  1118                 JUNCTION            671.90     78.10       0.0
  1119                 JUNCTION            671.87     78.13       0.0
  1120                 JUNCTION            671.83     78.17       0.0
  1121                 JUNCTION            671.80     78.20       0.0
  1122                 JUNCTION            671.77     78.23       0.0
  1123                 JUNCTION            671.73     78.27       0.0
  1124                 JUNCTION            671.70     78.30       0.0
  1125                 JUNCTION            671.67     78.33       0.0
  1126                 JUNCTION            671.63     78.37       0.0
  1127                 JUNCTION            671.60     78.40       0.0
  1128                 JUNCTION            671.59     28.41       0.0
  11SB1                JUNCTION            683.13     66.87       0.0
  11SB11               JUNCTION            694.80     55.20       0.0
  11SB14_OF            JUNCTION            645.50     54.50       0.0
  11SB17               JUNCTION            657.02     42.98       0.0
  11SB6                JUNCTION            684.00     66.00       0.0
  12SB1                JUNCTION            692.00     58.00       0.0
  12SB11               JUNCTION            744.30     30.70       0.0
  12SB6                JUNCTION            690.00     60.00       0.0
  13SB1                JUNCTION            688.40     61.60       0.0
  13SB11               JUNCTION            682.80     67.20       0.0
  13SB17               JUNCTION            653.18     46.82       0.0
  13SB6                JUNCTION            696.00     54.00       0.0
  14SB1                JUNCTION            695.00     55.00       0.0
  14SB11               JUNCTION            688.45     61.55       0.0
  14SB17               JUNCTION            655.94     44.06       0.0
  14SB6                JUNCTION            694.00     56.00       0.0
  15SB1                JUNCTION            678.50     71.50       0.0
  15SB11               JUNCTION            690.75     59.25       0.0
  15SB17               JUNCTION            659.00     41.00       0.0
  15SB6                JUNCTION            700.00     50.00       0.0
  16SB1                JUNCTION            675.50     74.50       0.0
  16SB11               JUNCTION            692.15     57.85       0.0
  16SB17               JUNCTION            668.50     31.50       0.0
  16SB6                JUNCTION            685.90     64.10       0.0
  17SB1                JUNCTION            675.41     74.59       0.0
  17SB11               JUNCTION            693.60     56.40       0.0
  17SB17               JUNCTION            662.39     37.61       0.0
  17SB6                JUNCTION            693.00     57.00       0.0
  18SB1                JUNCTION            680.90     69.10       0.0
  18SB17               JUNCTION            651.81     48.19       0.0
  18SB6                JUNCTION            701.00     49.00       0.0
  19SB1                JUNCTION            683.00     67.00       0.0
  19SB17               JUNCTION            648.35     51.65       0.0
  19SB6                JUNCTION            718.00     32.00       0.0
  1SB11_OF             JUNCTION            650.63     49.37       0.0
  1SB14                JUNCTION            690.50     59.50       0.0
  1SB17_OF             JUNCTION            647.96     52.04       0.0
  1SB19                JUNCTION            670.00     30.00       0.0
  1SB20                JUNCTION            678.00     22.00       0.0
  1SB21                JUNCTION            677.00     23.00       0.0
  1SB22                JUNCTION            679.00     21.00       0.0
  1SB23                JUNCTION            682.00     18.00       0.0
  1SB3_MIL             JUNCTION            679.91     20.09       0.0    Yes
  1SB4                 JUNCTION            682.55     17.45       0.0
  1SB5                 JUNCTION            677.60     22.40       0.0
  1SB6_OF              JUNCTION            665.98     34.02       0.0
  1SB7                 JUNCTION            678.41     21.59       0.0
  1SB9                 JUNCTION            676.10     23.90       0.0
  20SB1                JUNCTION            688.00     62.00       0.0
  20SB6                JUNCTION            709.50     40.50       0.0
  21SB1                JUNCTION            700.50     49.50       0.0
  21SB6                JUNCTION            710.00     40.00       0.0
  22SB1                JUNCTION            708.00     42.00       0.0
  22SB6                JUNCTION            706.00     44.00       0.0
  23SB1                JUNCTION            705.00     45.00       0.0
  23SB6                JUNCTION            697.00     53.00       0.0
  24SB1                JUNCTION            706.00     44.00       0.0
  24SB6                JUNCTION            716.40     33.60       0.0
  25SB1                JUNCTION            696.00     54.00       0.0
  25SB6                JUNCTION            718.80     31.20       0.0
  26SB1                JUNCTION            697.00     53.00       0.0
  26SB6                JUNCTION            723.90     26.10       0.0
  27SB1                JUNCTION            690.00     60.00       0.0
  28SB1                JUNCTION            688.00     62.00       0.0
  29SB1                JUNCTION            684.00     66.00       0.0
  2SB1                 JUNCTION            698.43     51.57       0.0
  2SB11                JUNCTION            664.45     35.55       0.0
  2SB14                JUNCTION            683.70     16.30       0.0
  2SB17                JUNCTION            668.13     31.87       0.0
  2SB19                JUNCTION            669.31     30.69       0.0
  2SB20_OF             JUNCTION            660.48     39.52       0.0
  2SB21                JUNCTION            667.60     32.40       0.0
  2SB22                JUNCTION            670.10     29.90       0.0
  2SB23                JUNCTION            678.00     22.00       0.0
  2SB2_MIL             JUNCTION            675.60     74.40       0.0
  2SB3                 JUNCTION            677.13     22.87       0.0
  2SB4                 JUNCTION            678.55     21.45       0.0
  2SB5                 JUNCTION            677.60     22.40       0.0
  2SB6                 JUNCTION            670.48     29.52       0.0
  2SB7                 JUNCTION            677.96     22.04       0.0
  2SB9                 JUNCTION            667.00     33.00       0.0
  30SB1                JUNCTION            682.10     67.90       0.0
  31SB1                JUNCTION            684.00     66.00       0.0
  32SB1                JUNCTION            678.17     21.83       0.0
  33SB1                JUNCTION            675.32     24.68       0.0
  34SB1                JUNCTION            686.00     14.00       0.0
  35SB1                JUNCTION            680.01     19.99       0.0
  36SB1                JUNCTION            678.51     21.49       0.0
  37SB1                JUNCTION            679.34     20.66       0.0
  38SB1                JUNCTION            682.20     17.80       0.0
  39SB1                JUNCTION            686.95     13.05       0.0
  3SB1                 JUNCTION            697.25     52.75       0.0
  3SB14                JUNCTION            682.00     18.00       0.0
  3SB17                JUNCTION            675.00     25.00       0.0
  3SB19                JUNCTION            664.82     35.18       0.0
  3SB21                JUNCTION            669.35     30.65       0.0
  3SB22                JUNCTION            668.60     31.40       0.0
  3SB23                JUNCTION            674.66     25.34       0.0
  3SB3                 JUNCTION            680.56     19.44       0.0
  3SB5                 JUNCTION            672.93     27.07       0.0
  3SB6                 JUNCTION            674.39     25.61       0.0
  3SB7                 JUNCTION            676.82     23.18       0.0
  3SB9                 JUNCTION            667.63     32.37       0.0
  40SB1                JUNCTION            675.00     25.00       0.0
  41SB1                JUNCTION            673.80     26.20       0.0
  42SB1                JUNCTION            672.86     27.14       0.0
  43SB1                JUNCTION            679.40     20.60       0.0
  44SB1                JUNCTION            680.30     19.70       0.0
  45SB1                JUNCTION            678.50     21.50       0.0
  46SB1                JUNCTION            671.51     28.49       0.0
  47SB1                JUNCTION            669.91     30.09       0.0
  48SB1_OF             JUNCTION            669.08     30.92       0.0
  49SB1                JUNCTION            672.62     27.38       0.0
  4SB1                 JUNCTION            695.56     54.44       0.0
  4SB11                JUNCTION            668.40     81.60       0.0
  4SB14                JUNCTION            677.00     23.00       0.0
  4SB17                JUNCTION            678.00     22.00       0.0
  4SB19_OF             JUNCTION            658.43     41.57       0.0
  4SB21                JUNCTION            666.60     33.40       0.0
  4SB22_OF             JUNCTION            665.04     34.96       0.0
  4SB23                JUNCTION            676.17     23.83       0.0
  4SB3                 JUNCTION            683.62     16.38       0.0
  4SB5_OF              JUNCTION            666.89     33.11       0.0
  4SB6                 JUNCTION            679.84     20.16       0.0
  4SB7                 JUNCTION            675.61     24.39       0.0
  4SB9                 JUNCTION            677.00     23.00       0.0
  50SB1                JUNCTION            672.47     27.53       0.0
  51SB1                JUNCTION            675.20     24.80       0.0
  52SB1_OF             JUNCTION            669.70     30.30       0.0
  53SB1_OF             JUNCTION            670.70     29.30       0.0
  5SB1                 JUNCTION            689.42     60.58       0.0
  5SB11                JUNCTION            675.00     75.00       0.0
  5SB14                JUNCTION            669.00     31.00       0.0
  5SB17                JUNCTION            668.10     31.90       0.0
  5SB21_OF             JUNCTION            663.00     37.00       0.0
  5SB23                JUNCTION            674.08     25.92       0.0
  5SB3                 JUNCTION            682.56     17.44       0.0
  5SB6                 JUNCTION            676.04     23.96       0.0
  5SB7_OF              JUNCTION            664.35     35.65       0.0
  5SB9_OF              JUNCTION            656.03     43.97       0.0
  6SB1                 JUNCTION            703.60     46.40       0.0
  6SB11                JUNCTION            679.50     70.50       0.0
  6SB14                JUNCTION            673.00     27.00       0.0
  6SB17                JUNCTION            666.20     33.80       0.0
  6SB3                 JUNCTION            679.53     20.47       0.0
  745                  JUNCTION            666.74     33.26       0.0
  747                  JUNCTION            659.37     40.63       0.0
  751                  JUNCTION            672.10     27.90       0.0
  754                  JUNCTION            680.00     20.00       0.0
  756                  JUNCTION            679.27     70.73       0.0
  757                  JUNCTION            682.28     17.72       0.0
  758                  JUNCTION            683.05     66.95       0.0
  7SB1                 JUNCTION            684.17     65.83       0.0
  7SB11                JUNCTION            684.60     65.40       0.0
  7SB14                JUNCTION            680.00     20.00       0.0
  7SB17                JUNCTION            668.20     31.80       0.0
  7SB3                 JUNCTION            674.35     25.65       0.0
  7SB6                 JUNCTION            679.00     21.00       0.0
  800                  JUNCTION            649.87     50.13       0.0
  802                  JUNCTION            645.40     54.60       0.0
  818                  JUNCTION            670.50     29.50       0.0
  822                  JUNCTION            669.07     30.93       0.0
  824                  JUNCTION            668.40     31.60       0.0
  8SB1                 JUNCTION            682.00     68.00       0.0
  8SB11                JUNCTION            687.05     62.95       0.0
  8SB14                JUNCTION            681.00     19.00       0.0
  8SB17                JUNCTION            670.30     29.70       0.0
  8SB3_OF              JUNCTION            670.08     29.92       0.0
  8SB6                 JUNCTION            678.00     22.00       0.0
  9SB1                 JUNCTION            680.71     69.29       0.0
  9SB11                JUNCTION            691.50     58.50       0.0
  9SB14                JUNCTION            668.00     32.00       0.0
  9SB17                JUNCTION            668.00     32.00       0.0
  O.15_UP              JUNCTION            644.00     56.00       0.0
  SB1018_OF            JUNCTION            653.27     46.73       0.0
  SB1216_OF            JUNCTION            647.80     52.20       0.0
  O.O_RM               OUTFALL             637.80     31.40       0.0
  1SB1                 STORAGE             704.45     35.55       0.0    Yes
  99                   STORAGE             682.00      8.00       0.0
  
  
  ************
  Link Summary
  ************
  Name             From Node        To Node          Type            Length    %Slope Roughness
  ---------------------------------------------------------------------------------------------
  583              19SB6            18SB6            CONDUIT         1000.0    0.9200    0.0230
  591              26SB6            25SB6            CONDUIT          300.0    1.7002    0.0230
  592              25SB6            24SB6            CONDUIT          300.0    0.8000    0.0230
  593              24SB6            18SB6            CONDUIT          300.0    2.5341    0.0230
  594              23SB6            13SB6            CONDUIT          300.0    0.3333    0.0230
  595              22SB6            23SB6            CONDUIT          400.0    2.2506    0.0230
  596              21SB6            22SB6            CONDUIT          250.0    1.6002    0.0230
  597              15SB6            14SB6            CONDUIT          650.0    0.9231    0.0400
  598              14SB6            756              CONDUIT          600.0    1.4385    0.0400
  601              12SB6            11SB6            CONDUIT          200.0    1.5002    0.0400
  602              13SB6            754              CONDUIT          800.0    1.2501    0.0190
  604              5SB6             2SB6             CONDUIT          950.0    0.5853    0.0190
  606              4SB6             3SB6             CONDUIT          600.0    0.9084    0.0230
  607              3SB6             2SB6             CONDUIT          150.0    0.6067    0.0230
  608              4SB9             3SB9             CONDUIT          500.0    1.8743    0.0230
  609              3SB9             2SB9             CONDUIT          300.0    0.2100    0.0230
  610              2SB9             5SB9_OF          CONDUIT          300.0    3.6591    0.0400
  612              1SB7             3SB7             CONDUIT          250.0    0.6360    0.0230
  613              3SB7             4SB7             CONDUIT          230.0    0.5261    0.0230
  615              2SB7             3SB7             CONDUIT          200.0    0.5700    0.0230
  616              1SB19            3SB19            CONDUIT          500.0    0.5360    0.0230
  618              2SB19            3SB19            CONDUIT          200.0    0.9950    0.0230
  619              1SB20            751              CONDUIT          500.0    1.1801    0.0230
  620              1SB21            4SB21            CONDUIT          550.0    1.8912    0.0230
  622              3SB21            4SB21            CONDUIT          200.0    1.3751    0.0230
  623              2SB21            4SB21            CONDUIT          200.0    0.5000    0.0230
  624              1SB22            3SB22            CONDUIT          700.0    1.4859    0.0230
  626              2SB22            3SB22            CONDUIT          300.0    0.5000    0.0230
  627              1SB23            5SB23            CONDUIT          700.0    1.1315    0.0230
  628              5SB23            4SB5_OF          CONDUIT          150.0    1.6536    0.0230
  629              2SB23            3SB23            CONDUIT          600.0    0.5567    0.0230
  630              3SB23            5SB23            CONDUIT          350.0    0.1657    0.0230
  631              4SB23            3SB23            CONDUIT          300.0    0.5033    0.0230
  632              1SB5             3SB5             CONDUIT          550.0    0.8491    0.0230
  633              3SB5             4SB5_OF          CONDUIT          150.0    0.8867    0.0230
  634              2SB5             3SB5             CONDUIT          400.0    1.1676    0.0230
  712              4SB19_OF         5SB9_OF          CONDUIT          400.0    0.6000    0.0350
  713              5SB9_OF          SB1018_OF        CONDUIT          400.0    0.6900    0.0350
  714              SB1018_OF        1SB11_OF         CONDUIT          395.0    0.6684    0.0350
  748              747              4SB19_OF         CONDUIT          200.0    0.4700    0.0350
  750              3SB22            2SB21            CONDUIT          200.0    0.5000    0.0230
  753              751              2SB20_OF         CONDUIT          200.0    0.5100    0.0230
  762              20SB6            18SB6            CONDUIT          300.0    0.2333    0.0230
  635              1SB4             2SB4             CONDUIT          300.0    1.3335    0.0230
  636              2SB4             48SB1_OF         CONDUIT          170.0    0.2353    0.0230
  637              6SB3             7SB3             CONDUIT          300.0    1.0601    0.0230
  641              4SB3             3SB3             CONDUIT          400.0    0.7650    0.0230
  642              3SB3             2SB3             CONDUIT          300.0    0.4767    0.0230
  643              5SB3             3SB3             CONDUIT          400.0    0.5000    0.0230
  644              1SB1             5SB1             CONDUIT          515.0    1.6410    0.0190
  647              9SB1             10SB1            CONDUIT          770.0    0.2065    0.0230
  650              40SB1            41SB1            CONDUIT          620.0    0.1935    0.0400
  655              2SB1             3SB1             CONDUIT          203.0    0.5813    0.0190
  656              3SB1             4SB1             CONDUIT          367.0    0.4605    0.0190
  657              4SB1             5SB1             CONDUIT          430.0    1.4281    0.0190
  658              12SB1            13SB1            CONDUIT          675.0    0.5333    0.0230
  659              13SB1            15SB1            CONDUIT          730.0    1.3563    0.0230
  660              15SB1            16SB1            CONDUIT          150.0    0.2000    0.0230
  662              22SB1            21SB1            CONDUIT          330.0    2.2733    0.0230
  663              21SB1            14SB1            CONDUIT          970.0    0.5670    0.0230
  664              14SB1            13SB1            CONDUIT          630.0    1.0477    0.0230
  665              23SB1            20SB1            CONDUIT          700.0    2.4293    0.0230
  666              20SB1            30SB1            CONDUIT          440.0    1.3410    0.0230
  667              24SB1            26SB1            CONDUIT          220.0    4.0943    0.0230
  668              26SB1            27SB1            CONDUIT          150.0    4.6718    0.0230
  669              27SB1            28SB1            CONDUIT          200.0    1.0001    0.0230
  670              28SB1            29SB1            CONDUIT          230.0    1.7394    0.0230
  671              29SB1            30SB1            CONDUIT          200.0    0.9500    0.0230
  672              30SB1            18SB1            CONDUIT          200.0    0.6000    0.0230
  673              18SB1            15SB1            CONDUIT          210.0    1.1429    0.0230
  674              25SB1            29SB1            CONDUIT          600.0    2.0004    0.0230
  675              19SB1            18SB1            CONDUIT          310.0    0.6774    0.0230
  676              6SB1             7SB1             CONDUIT         1200.0    1.0859    0.0240
  677              8SB1             9SB1             CONDUIT          500.0    0.2580    0.0230
  678              11SB1            10SB1            CONDUIT          550.0    0.7291    0.0230
  679              31SB1            16SB1            CONDUIT          550.0    1.0546    0.0230
  680              39SB1            38SB1            CONDUIT          500.0    0.9500    0.0230
  681              38SB1            37SB1            CONDUIT          250.0    1.1441    0.0230
  682              37SB1            36SB1            CONDUIT          200.0    0.4150    0.0230
  684              33SB1            41SB1            CONDUIT          350.0    0.4343    0.0800
  685              35SB1            36SB1            CONDUIT          300.0    0.5000    0.0230
  686              32SB1            33SB1            CONDUIT          350.0    0.2714    0.0230
  687              34SB1            33SB1            CONDUIT          500.0    1.7563    0.0230
  688              50SB1            51SB1            CONDUIT          220.0    0.6773    0.0230
  690              49SB1            47SB1            CONDUIT          500.0    1.0341    0.0230
  694              43SB1            42SB1            CONDUIT          600.0    1.0901    0.0230
  695              44SB1            45SB1            CONDUIT          300.0    0.6000    0.0230
  696              45SB1            46SB1            CONDUIT          400.0    0.3725    0.0230
  702              818              8SB3_OF          CONDUIT          300.0    0.1400    0.0350
  703              8SB3_OF          52SB1_OF         CONDUIT          180.0    0.2111    0.0350
  704              52SB1_OF         48SB1_OF         CONDUIT          365.0    0.1699    0.0350
  705              822              824              CONDUIT          420.0    0.1595    0.0350
  825              824              4SB5_OF          CONDUIT          350.0    0.4314    0.0350
  826              10SB1            32SB1            CONDUIT          350.0    0.5572    0.0230
  536              5SB17            6SB17            CONDUIT          600.0    0.3167    0.0230
  537              6SB17            15SB17           CONDUIT          350.0    0.0857    0.0230
  543              8SB17            6SB17            CONDUIT          400.0    1.0251    0.0230
  544              9SB17            15SB17           CONDUIT          300.0    0.7000    0.0230
  548              7SB17            6SB17            CONDUIT          300.0    0.6667    0.0230
  549              16SB17           15SB17           CONDUIT          350.0    0.7429    0.0230
  551              4SB17            3SB17            CONDUIT          900.0    0.3333    0.0230
  552              3SB17            2SB17            CONDUIT          258.0    0.5426    0.0230
  557              1SB14            2SB14            CONDUIT          400.0    1.7002    0.0230
  558              2SB14            3SB14            CONDUIT          950.0    0.1789    0.0230
  559              3SB14            4SB14            CONDUIT          550.0    0.9091    0.0230
  560              4SB14            9SB14            CONDUIT          400.0    2.2506    0.0230
  561              9SB14            10SB14           CONDUIT          600.0    1.5002    0.0230
  563              8SB14            10SB14           CONDUIT         1200.0    1.8336    0.0230
  564              7SB14            6SB14            CONDUIT          300.0    2.3340    0.0230
  565              6SB14            5SB14            CONDUIT          200.0    2.0004    0.0230
  566              5SB14            9SB14            CONDUIT          300.0    0.3333    0.0230
  571              11SB11           10SB11           CONDUIT          300.0    0.6667    0.0230
  572              10SB11           9SB11            CONDUIT          250.0    0.5200    0.0230
  573              9SB11            8SB11            CONDUIT          400.0    0.1250    0.0230
  582              12SB11           8SB11            CONDUIT         1250.0    4.2679    0.0230
  717              SB1216_OF        11SB14_OF        CONDUIT          630.0    0.3651    0.0550
  801              800              1SB17_OF         CONDUIT          530.0    0.3604    0.0400
  0.06_NAT         0.10_RM          O.O_RM           CONDUIT          520.0    0.5385    0.0500
  1087             751              3SB21            CONDUIT          200.0    1.3751    0.0230
  1051             41SB1            1050             CONDUIT          350.0    0.1343    0.0400
  817pipe          18SB6            17SB6            CONDUIT          600.0    1.3335    0.0190
  817chan          18SB6            17SB6            CONDUIT          600.0    1.4668    0.0230
  816pipe          17SB6            16SB6            CONDUIT          380.0    1.8687    0.0190
  816chan          17SB6            16SB6            CONDUIT          380.0    2.1057    0.0230
  815pipe1         16SB6            11SB6            CONDUIT          298.0    0.6376    0.0190
  815chan          16SB6            11SB6            CONDUIT          298.0    0.6376    0.0230
  815pipe2         16SB6            11SB6            CONDUIT          260.0    0.7308    0.0190
  814pipe          11SB6            758              CONDUIT          250.0    0.3800    0.0190
  814chan          11SB6            758              CONDUIT          250.0    0.3800    0.0230
  810pipe1         756              8SB6             CONDUIT          334.0    0.3802    0.0190
  810chan          756              8SB6             CONDUIT          334.0    0.3802    0.0190
  810pipe2         756              8SB6             CONDUIT          383.0    0.3316    0.0190
  789pipe          8SB6             5SB6             CONDUIT           52.0    3.7719    0.0180
  789of            8SB6             5SB6             CONDUIT           52.0    2.1159    0.0400
  803pipe          7SB6             8SB6             CONDUIT          177.0    0.5650    0.0190
  803chan          7SB6             8SB6             CONDUIT          177.0    0.2825    0.0190
  805pipe1         2SB6             1SB6_OF          CONDUIT          190.0    3.1595    0.0190
  805pipe2         2SB6             1SB6_OF          CONDUIT          195.0    2.1030    0.0190
  805of            2SB6             1SB6_OF          CONDUIT          195.0    2.0517    0.0400
  830pipe          1SB9             2SB9             CONDUIT          160.0    5.6967    0.0190
  830of            1SB9             2SB9             CONDUIT          160.0    5.5397    0.0140
  831pipe          4SB7             5SB7_OF          CONDUIT          140.0    8.0690    0.0190
  831of            4SB7             5SB7_OF          CONDUIT          140.0    8.0690    0.0140
  827pipe          3SB19            4SB19_OF         CONDUIT          100.0    5.2271    0.0190
  827of            3SB19            4SB19_OF         CONDUIT          100.0    5.2271    0.0140
  826pipe          4SB21            5SB21_OF         CONDUIT          140.0    2.5723    0.0190
  826of            4SB21            5SB21_OF         CONDUIT           50.0    2.0004    0.0140
  825pipe          3SB22            4SB22_OF         CONDUIT          140.0    2.5437    0.0190
  825of            3SB22            4SB22_OF         CONDUIT           50.0    2.0004    0.0140
  51OVRFLW         4SB5_OF          745              CONDUIT           75.0    0.1320    0.0400
  51_7x10_1        4SB5_OF          745              CONDUIT           75.0    0.2000    0.0200
  51_7x10_2        4SB5_OF          745              CONDUIT           75.0    0.2000    0.0200
  707_modify       1SB6_OF          4SB22_OF         CONDUIT          220.0    0.4273    0.0350
  708_modify       4SB22_OF         5SB7_OF          CONDUIT          175.0    0.3943    0.0350
  709_modify       5SB7_OF          5SB21_OF         CONDUIT          345.0    0.3913    0.0350
  710_modify       5SB21_OF         2SB20_OF         CONDUIT          370.0    0.6811    0.0350
  47PIPE           2SB20_OF         747              CONDUIT          150.0    0.7400    0.0300
  47OVRFLW         2SB20_OF         747              CONDUIT          150.0    0.0500    0.0400
  746_modify       745              1SB6_OF          CONDUIT          180.0    0.4222    0.0350
  804pipe          754              7SB6             CONDUIT          227.0    0.4405    0.0190
  804chan          754              7SB6             CONDUIT          177.0    0.2825    0.0230
  813pipe          758              757              CONDUIT          202.0    0.3812    0.0190
  813chan          758              757              CONDUIT          202.0    0.3812    0.0230
  812pipe          757              10SB6            CONDUIT          358.0    0.3799    0.0190
  812chan          757              10SB6            CONDUIT          358.0    0.3799    0.0230
  811pipe          10SB6            756              CONDUIT          435.0    0.3793    0.0190
  811chan          10SB6            756              CONDUIT          435.0    0.3793    0.0230
  838of            7SB3             8SB3_OF          CONDUIT          170.0    1.2648    0.0230
  838pip           7SB3             8SB3_OF          CONDUIT          170.0    1.2648    0.0190
  839chan          1SB3_MIL         2SB3             CONDUIT          220.0    1.2637    0.0230
  839pipe          1SB3_MIL         2SB3             CONDUIT          220.0    1.2637    0.0190
  838chan          2SB3             7SB3             CONDUIT          220.0    1.2637    0.0230
  838pipe          2SB3             7SB3             CONDUIT          220.0    1.2637    0.0190
  36inch_1         5SB1             7SB1             CONDUIT          679.0    0.7732    0.0190
  54inch_1         5SB1             7SB1             CONDUIT          679.0    0.7732    0.0190
  36inch_2         7SB1             9SB1             CONDUIT          533.0    0.6492    0.0190
  54inch_2         7SB1             9SB1             CONDUIT          533.0    0.6492    0.0190
  848pipe          10SB1            17SB1            CONDUIT          235.0    0.4809    0.0190
  848chan          10SB1            17SB1            CONDUIT          235.0    0.5149    0.0200
  849_1            17SB1            40SB1            CONDUIT          150.0    0.2733    0.0190
  849_2            17SB1            40SB1            CONDUIT          150.0    0.2733    0.0190
  849_trap         17SB1            40SB1            CONDUIT          150.0    0.2733    0.0200
  853pipe          49SB1            50SB1            CONDUIT          320.0    0.0469    0.0190
  853of            49SB1            50SB1            CONDUIT          320.0    0.0438    0.0350
  854of            50SB1            53SB1_OF         CONDUIT          270.0    0.0778    0.0350
  861_1            16SB1            17SB1            CONDUIT           60.0    0.1500    0.0190
  861_2            16SB1            17SB1            CONDUIT           60.0    0.1500    0.0190
  861_trap         16SB1            17SB1            CONDUIT           60.0    0.4833    0.0200
  883culv          36SB1            33SB1            CONDUIT          280.0    1.1394    0.0190
  883of            36SB1            33SB1            CONDUIT          280.0    1.1394    0.0500
  889pipe          51SB1            52SB1_OF         CONDUIT          133.0    3.0842    0.0190
  889chan          51SB1            52SB1_OF         CONDUIT          133.0    3.0842    0.0500
  691pipe          47SB1            822              CONDUIT          200.0    0.4200    0.0190
  691chan          47SB1            822              CONDUIT          200.0    0.4200    0.0230
  892pipe          42SB1            46SB1            CONDUIT          320.0    0.4219    0.0190
  892chan          42SB1            46SB1            CONDUIT          320.0    0.5281    0.0400
  893pipe          46SB1            47SB1            CONDUIT          380.0    0.4211    0.0190
  893chan          46SB1            47SB1            CONDUIT          380.0    0.4211    0.0230
  55_OVRFLW        53SB1_OF         818              CONDUIT           58.0    2.0177    0.0400
  55_5x12_1        53SB1_OF         818              CONDUIT           60.0    0.3333    0.0150
  55_5x12_2        53SB1_OF         818              CONDUIT           60.0    0.3333    0.0150
  53_#7TRP         48SB1_OF         822              CONDUIT          100.0    0.0100    0.0500
  708pipe          15SB17           14SB17           CONDUIT          428.0    0.5981    0.0190
  708chan          15SB17           14SB17           CONDUIT          428.0    0.0935    0.0230
  706pipe          14SB17           13SB17           CONDUIT          442.0    0.4005    0.0190
  706chan          14SB17           13SB17           CONDUIT          442.0    0.2262    0.0230
  704pipe          13SB17           18SB17           CONDUIT          245.0    0.5592    0.0190
  704chan          13SB17           18SB17           CONDUIT          245.0   -0.6123    0.0230
  702pipe          18SB17           19SB17           CONDUIT          440.0    0.5591    0.0190
  702chan          18SB17           19SB17           CONDUIT          440.0    0.9091    0.0230
  700pipe          19SB17           1SB17_OF         CONDUIT          210.0    0.1857    0.0190
  700chan          19SB17           1SB17_OF         CONDUIT          210.0    0.9524    0.0230
  707pipe          10SB17           14SB17           CONDUIT          491.0    1.6479    0.0190
  707chan          10SB17           14SB17           CONDUIT          491.0    1.3647    0.0230
  705pipe          11SB17           13SB17           CONDUIT          107.0    1.0001    0.0190
  705chan          11SB17           13SB17           CONDUIT          107.0    0.4673    0.0230
  750p             17SB17           18SB17           CONDUIT          409.0    1.0001    0.0190
  750c             17SB17           18SB17           CONDUIT          409.0    0.4890    0.0300
  701pipe          2SB17            19SB17           CONDUIT          859.0    1.6067    0.0190
  701chan          2SB17            19SB17           CONDUIT          859.0    1.3505    0.0230
  740pipe          10SB14           11SB14_OF        CONDUIT          722.0    0.9003    0.0190
  740chan          10SB14           11SB14_OF        CONDUIT          722.0    0.9003    0.0230
  768pipe          2SB11            800              CONDUIT         1079.0    1.1419    0.0190
  768chan          2SB11            800              CONDUIT         1079.0    1.2049    0.0230
  770pipe          5SB11            4SB11            CONDUIT          827.0    0.7376    0.0190
  770chan          5SB11            4SB11            CONDUIT          827.0    0.4595    0.0230
  769pipe          4SB11            2SB11            CONDUIT          555.0    0.7117    0.0190
  769chan          4SB11            2SB11            CONDUIT          555.0    0.9370    0.0230
  782pipe          8SB11            7SB11            CONDUIT          415.0    0.5301    0.0190
  782chan          8SB11            7SB11            CONDUIT          415.0    0.1205    0.0230
  781pipe          7SB11            6SB11            CONDUIT          285.0    1.7898    0.0190
  781chan          7SB11            6SB11            CONDUIT          285.0    0.1754    0.0230
  780pipe          6SB11            4SB11            CONDUIT          529.0    1.0208    0.0190
  780chan          6SB11            4SB11            CONDUIT          529.0    1.6637    0.0230
  775pipe          17SB11           16SB11           CONDUIT          293.0    0.4949    0.0190
  775chan          17SB11           16SB11           CONDUIT          293.0    0.5120    0.0230
  774pipe          16SB11           15SB11           CONDUIT          276.0    0.5073    0.0190
  774chan          16SB11           15SB11           CONDUIT          276.0    0.7971    0.0230
  773pipe          15SB11           14SB11           CONDUIT          413.0    0.5569    0.0190
  773chan          15SB11           14SB11           CONDUIT          636.0    0.3302    0.0230
  772pipe          14SB11           13SB11           CONDUIT          636.0    0.8098    0.0190
  772chan          14SB11           13SB11           CONDUIT          636.0    0.8176    0.0230
  771pipe          13SB11           5SB11            CONDUIT         1029.0    0.7580    0.0190
  771chan          13SB11           5SB11            CONDUIT         1029.0    0.7775    0.0230
  DEANPIPE1        1SB11_OF         800              CONDUIT          100.0    0.7600    0.0250
  DEANPIPE2        1SB11_OF         800              CONDUIT          100.0    0.7600    0.0250
  DEANOVER         1SB11_OF         800              CONDUIT          100.0    0.3000    0.0400
  TEUT_OVF         1SB17_OF         SB1216_OF        CONDUIT          110.0    0.4000    0.0300
  TEUTPIPE1        1SB17_OF         SB1216_OF        CONDUIT          110.0    0.1455    0.0200
  GBPIPE           11SB14_OF        802              CONDUIT          140.0    0.0714    0.0200
  GB_OVER          11SB14_OF        802              CONDUIT          140.0    0.4000    0.0300
  .21NAT           802              O.15_UP          CONDUIT          185.0    0.7568    0.0550
  DEERWPIPE        O.15_UP          0.15_RM          CONDUIT           75.0    0.1333    0.0200
  DEER_OVR         O.15_UP          0.15_RM          CONDUIT           55.0    0.1800    0.0750
  .13_NAT          0.15_RM          0.10_UP          CONDUIT          240.0    1.3335    0.0550
  PATH_PIPE        0.10_UP          0.10_RM          CONDUIT           50.0    0.2000    0.0200
  PATH_OV          0.10_UP          0.10_RM          CONDUIT           50.0    0.2000    0.0750
  BradleyIn        102              99               CONDUIT          100.0    3.0014    0.0200
  Brad_Out         99               2SB2_MIL         CONDUIT           50.0   12.9062    0.0200
  BradBox          102              2SB2_MIL         CONDUIT          600.0    1.4835    0.0180
  BradBoxOv        102              2SB2_MIL         CONDUIT          100.0    0.1000    0.0400
  s_config2        1050             42SB1            CONDUIT          350.0    0.1343    0.0400
  LIB_1            2SB2_MIL         1118             CONDUIT          100.0    3.7025    0.0400
  LIB_2            1118             1119             CONDUIT           50.0    0.0600    0.0350
  LIB_3            1119             1120             CONDUIT          100.0    0.0400    0.0350
  LIB_4            1120             1121             CONDUIT           50.0    0.0600    0.0350
  LIB_5            1121             1122             CONDUIT           50.0    0.0600    0.0350
  LIB_6            1122             1123             CONDUIT          100.0    0.0400    0.0350
  LIB_7            1123             1124             CONDUIT           50.0    0.0600    0.0350
  LIB_8            1124             1125             CONDUIT           50.0    0.0600    0.0350
  LIB_9            1125             1126             CONDUIT          200.0    0.0200    0.0350
  LIB_10           1126             1127             CONDUIT           50.0    0.0600    0.0250
  LIB_12           1128             53SB1_OF         CONDUIT          170.0    0.1706    0.0250
  WEIR1            1127             1128             WEIR        
  WEIR2            1127             1128             WEIR        
  WEIR3            1127             1128             WEIR        
  
  
  *********************
  Cross Section Summary
  *********************
                                        Full     Full     Hyd.     Max.   No. of     Full
  Conduit          Shape               Depth     Area     Rad.    Width  Barrels     Flow
  ---------------------------------------------------------------------------------------
  583              1                   12.00  1373.50     8.27   140.00        1 34795.34
  591              2                   12.00  1373.50     8.27   140.00        1 47301.38
  592              3                   12.00  1373.50     8.27   140.00        1 32446.65
  593              4                   12.00  1373.50     8.27   140.00        1 57747.59
  594              5                   12.00  1373.50     8.27   140.00        1 20943.95
  595              6                   12.00  1373.50     8.27   140.00        1 54420.71
  596              7                   12.00  1373.50     8.27   140.00        1 45888.70
  597              8                   15.00   225.00     5.28    30.00        1  2435.75
  598              9                   10.00   190.00     5.09    30.00        1  2505.76
  601              10                  15.00   225.00     5.28    30.00        1  3105.09
  602              11                  12.00  1373.50     6.51   140.00        1 41894.69
  604              12                  10.00   338.40     3.28    60.00        1  4469.93
  606              13                  12.00  1373.50     8.27   140.00        1 34574.00
  607              14                  12.00  1373.50     8.27   140.00        1 28255.11
  608              15                  12.00  1373.50     8.27   140.00        1 49663.91
  609              16                  12.00  1373.50     8.27   140.00        1 16623.72
  610              TRAPEZOIDAL          5.00    75.00     2.74    25.00        1  1043.91
  612              17                  12.00  1373.50     8.27   140.00        1 28930.17
  613              18                  12.00  1373.50     8.27   140.00        1 26311.75
  615              19                  12.00  1373.50     8.27   140.00        1 27387.91
  616              20                  12.00  1373.50     8.27   140.00        1 26558.50
  618              21                  12.00  1373.50     8.27   140.00        1 36185.97
  619              22                  12.00  1373.50     8.27   140.00        1 39407.07
  620              23                  12.00  1373.50     8.27   140.00        1 49887.55
  622              24                  12.00  1373.50     8.27   140.00        1 42539.25
  623              25                  12.00  1373.50     8.27   140.00        1 25651.08
  624              26                  12.00  1373.50     8.27   140.00        1 44219.07
  626              27                  12.00  1373.50     8.27   140.00        1 25651.08
  627              28                  12.00  1373.50     8.27   140.00        1 38587.39
  628              29                  12.00  1373.50     8.27   140.00        1 46647.45
  629              30                  12.00  1373.50     8.27   140.00        1 27065.68
  630              31                  12.00  1373.50     8.27   140.00        1 14767.20
  631              32                  12.00  1373.50     8.27   140.00        1 25736.45
  632              33                  12.00  1373.50     8.27   140.00        1 33427.42
  633              34                  12.00  1373.50     8.27   140.00        1 34159.12
  634              35                  12.00  1373.50     8.27   140.00        1 39197.76
  712              36                  22.36  2630.52     7.23   185.20        1 32346.42
  713              37                  25.09  3087.26    10.69   176.40        1 52843.18
  714              38                  27.06  2117.78    13.31    98.20        1 41289.62
  748              39                  19.83  3282.97     5.62   280.20        1 30214.17
  750              40                  12.00  1373.50     8.27   140.00        1 25651.08
  753              41                  12.00  1373.50     8.27   140.00        1 25906.33
  762              42                  12.00  1373.50     8.27   140.00        1 17522.94
  635              43                  12.00  1373.50     8.27   140.00        1 41889.64
  636              44                  12.00  1373.50     8.27   140.00        1 17596.41
  637              45                  12.00  1373.50     8.27   140.00        1 37349.36
  641              46                  12.00  1373.50     8.27   140.00        1 31728.90
  642              47                  12.00  1373.50     8.27   140.00        1 25045.39
  643              48                  12.00  1373.50     8.27   140.00        1 25651.08
  644              CIRCULAR             3.00     7.07     0.75     3.00        1    58.46
  647              49                  12.00  1373.50     8.27   140.00        1 16484.34
  650              50                  15.00  1916.50     4.82   162.00        1  8931.56
  655              CIRCULAR             3.50     9.62     0.88     3.50        1    52.48
  656              CIRCULAR             3.50     9.62     0.88     3.50        1    46.71
  657              CIRCULAR             3.50     9.62     0.88     3.50        1    82.26
  658              51                  12.00  1373.50     8.27   140.00        1 26492.35
  659              52                  12.00  1373.50     8.27   140.00        1 42246.83
  660              53                  12.00  1373.50     8.27   140.00        1 16223.08
  662              54                  12.00  1373.50     8.27   140.00        1 54695.01
  663              55                  12.00  1373.50     8.27   140.00        1 27315.99
  664              56                  12.00  1373.50     8.27   140.00        1 37130.57
  665              57                  12.00  1373.50     8.27   140.00        1 56540.22
  666              58                  12.00  1373.50     8.27   140.00        1 42008.50
  667              59                  12.00  1373.50     8.27   140.00        1 73402.31
  668              60                  12.00  1373.50     8.27   140.00        1 78407.59
  669              61                  12.00  1373.50     8.27   140.00        1 36276.79
  670              62                  12.00  1373.50     8.27   140.00        1 47842.83
  671              63                  12.00  1373.50     8.27   140.00        1 35358.15
  672              64                  12.00  1373.50     8.27   140.00        1 28099.43
  673              65                  12.00  1373.50     8.27   140.00        1 38781.82
  674              66                  12.00  1373.50     8.27   140.00        1 51306.98
  675              67                  12.00  1373.50     8.27   140.00        1 29857.38
  676              TRAPEZOIDAL          5.00   145.00     2.64    54.00        1  1785.63
  677              68                  12.00  1373.50     8.27   140.00        1 18425.89
  678              69                  12.00  1373.50     8.27   140.00        1 30975.23
  679              70                  12.00  1373.50     8.27   140.00        1 37253.12
  680              71                  12.00  1373.50     8.27   140.00        1 35358.15
  681              72                  12.00  1373.50     8.27   140.00        1 38801.20
  682              73                  12.00  1373.50     8.27   140.00        1 23369.20
  684              74                   5.00   809.85     3.93   340.00        1  2467.08
  685              75                  12.00  1373.50     8.27   140.00        1 25651.08
  686              76                  12.00  1373.50     8.27   140.00        1 18899.34
  687              77                  12.00  1373.50     8.27   140.00        1 48074.38
  688              78                  12.00  1373.50     8.27   140.00        1 29854.15
  690              79                  12.00  1373.50     8.27   140.00        1 36888.40
  694              80                  12.00  1373.50     8.27   140.00        1 37874.26
  695              81                  12.00  1373.50     8.27   140.00        1 28099.43
  696              82                  12.00  1373.50     8.27   140.00        1 22140.26
  702              83                  18.02  1064.56     9.17    87.20        1  7411.39
  703              84                  18.02  1064.56     9.17    87.20        1  9101.05
  704              85                  19.31   903.85    11.14    71.70        1  7889.82
  705              86                  20.78  1096.51    14.34    66.70        1 10975.75
  825              87                  21.60  2128.06     8.72   151.20        1 25143.17
  826              88                  12.00  1373.50     8.27   140.00        1 27077.26
  536              89                  12.00  1373.50     8.27   140.00        1 20413.63
  537              90                  12.00  1373.50     8.27   140.00        1 10620.49
  543              91                  12.00  1373.50     8.27   140.00        1 36727.50
  544              92                  12.00  1373.50     8.27   140.00        1 30350.95
  548              93                  12.00  1373.50     8.27   140.00        1 29619.46
  549              94                  12.00  1373.50     8.27   140.00        1 31266.31
  551              95                  12.00  1373.50     8.27   140.00        1 20943.95
  552              96                  12.00  1373.50     8.27   140.00        1 26722.39
  557              97                  12.00  1373.50     8.27   140.00        1 47301.38
  558              98                  12.00  1373.50     8.27   140.00        1 15345.50
  559              99                  12.00  1373.50     8.27   140.00        1 34588.41
  560              100                 12.00  1373.50     8.27   140.00        1 54420.71
  561              101                 12.00  1373.50     8.27   140.00        1 44431.20
  563              102                 12.00  1373.50     8.27   140.00        1 49121.90
  564              103                 12.00  1373.50     8.27   140.00        1 55419.87
  565              104                 12.00  1373.50     8.27   140.00        1 51306.98
  566              105                 12.00  1373.50     8.27   140.00        1 20943.95
  571              106                 12.00  1373.50     8.27   140.00        1 29619.46
  572              107                 12.00  1373.50     8.27   140.00        1 26159.09
  573              108                 12.00  1373.50     8.27   140.00        1 12825.47
  582              109                 12.00  1373.50     8.27   140.00        1 74941.81
  717              110                 13.54   850.87     7.34   116.50        1  5243.99
  801              111                 21.48  1297.22    10.16    93.50        1 13568.10
  0.06_NAT         112                 31.40 11647.00     2.95   486.00        1 52276.99
  1087             113                 12.00  1373.50     8.27   140.00        1 42539.25
  1051             114                 16.20  8888.29     4.80   730.20        1 34422.42
  817pipe          CIRCULAR             2.50     4.91     0.62     2.50        1    32.41
  817chan          115                 10.50  1326.20     6.40   140.00        1 35771.94
  816pipe          CIRCULAR             2.00     3.14     0.50     2.00        1    21.16
  816chan          116                 10.50  1326.20     6.40   140.00        1 42860.26
  815pipe1         CIRCULAR             2.00     3.14     0.50     2.00        1    12.36
  815chan          117                 10.50  1326.20     6.40   140.00        1 23584.49
  815pipe2         CIRCULAR             2.00     3.14     0.50     2.00        1    13.23
  814pipe          CIRCULAR             2.00     3.14     0.50     2.00        1     9.54
  814chan          118                 10.50  1326.20     6.40   140.00        1 18207.35
  810pipe1         CIRCULAR             4.00    12.57     1.00     4.00        1    60.60
  810chan          119                 10.50  1326.20     5.32   140.00        1 19493.77
  810pipe2         CIRCULAR             3.00     7.07     0.75     3.00        1    26.28
  789pipe          CIRCULAR             4.00    12.57     1.00     4.00        1   201.48
  789of            TRAPEZOIDAL          5.00    65.00     2.56    23.00        1   657.84
  803pipe          CIRCULAR             3.00     7.07     0.75     3.00        1    34.30
  803chan          120                 12.00  1373.50     7.83   140.00        1 22517.02
  805pipe1         CIRCULAR             3.00     7.07     0.75     3.00        1    81.12
  805pipe2         CIRCULAR             4.50    15.90     1.12     4.50        1   195.12
  805of            TRAPEZOIDAL          5.00    75.00     2.74    25.00        1   781.69
  830pipe          CIRCULAR             1.25     1.23     0.31     1.25        1    10.55
  830of            TRAPEZOIDAL          5.00    75.00     2.74    25.00        1  3669.89
  831pipe          CIRCULAR             1.25     1.23     0.31     1.25        1    12.56
  831of            TRAPEZOIDAL          5.00    75.00     2.74    25.00        1  4429.13
  827pipe          CIRCULAR             2.00     3.14     0.50     2.00        1    35.39
  827of            TRAPEZOIDAL          5.00    75.00     2.74    25.00        1  3564.84
  826pipe          CIRCULAR             1.75     2.41     0.44     1.75        1    17.39
  826of            TRAPEZOIDAL          5.00    75.00     2.74    25.00        1  2205.30
  825pipe          CIRCULAR             1.50     1.77     0.38     1.50        1    11.46
  825of            TRAPEZOIDAL          5.00    75.00     2.74    25.00        1  2205.30
  51OVRFLW         121                 14.50  1502.82    11.22   105.20        1 10165.74
  51_7x10_1        RECT_CLOSED          7.00    70.00     2.06    10.00        1   376.43
  51_7x10_2        RECT_CLOSED          7.00    70.00     2.06    10.00        1   376.43
  707_modify       122                 23.94  5311.72    16.15   259.20        1 94182.72
  708_modify       123                 24.96  4840.55    18.06   228.20        1 88841.93
  709_modify       124                 24.96  4840.55    18.06   228.20        1 88505.40
  710_modify       125                 27.00  4902.91    20.86   210.20        1 130194.81
  47PIPE           CIRCULAR             1.00     0.79     0.25     1.00        1     1.33
  47OVRFLW         126                 18.00  5162.26    15.25   305.20        1 26376.24
  746_modify       127                 23.94  5311.72    16.15   259.20        1 93624.42
  804pipe          CIRCULAR             2.50     4.91     0.62     2.50        1    18.63
  804chan          128                 12.00  1373.50     8.27   140.00        1 19280.45
  813pipe          CIRCULAR             2.50     4.91     0.62     2.50        1    17.33
  813chan          129                 10.50  1326.20     6.40   140.00        1 18235.80
  812pipe          CIRCULAR             3.00     7.07     0.75     3.00        1    28.13
  812chan          130                 10.50  1326.20     6.40   140.00        1 18204.68
  811pipe          CIRCULAR             3.50     9.62     0.88     3.50        1    42.40
  811chan          131                 10.50  1326.20     6.40   140.00        1 18190.82
  838of            132                 12.00  1373.50     8.27   140.00        1 40797.18
  838pip           CIRCULAR             2.00     3.14     0.50     2.00        1    17.41
  839chan          133                 12.00  1373.50     8.27   140.00        1 40779.92
  839pipe          CIRCULAR             2.00     3.14     0.50     2.00        1    17.40
  838chan          134                 12.00  1373.50     8.27   140.00        1 40779.92
  838pipe          CIRCULAR             2.00     3.14     0.50     2.00        1    17.40
  36inch_1         CIRCULAR             3.00     7.07     0.75     3.00        1    40.13
  54inch_1         CIRCULAR             4.50    15.90     1.12     4.50        1   118.31
  36inch_2         CIRCULAR             3.00     7.07     0.75     3.00        1    36.77
  54inch_2         CIRCULAR             4.50    15.90     1.12     4.50        1   108.41
  848pipe          CIRCULAR             3.50     9.62     0.88     3.50        1    47.74
  848chan          TRAPEZOIDAL          5.00    75.00     2.74    25.00        1   783.19
  849_1            CIRCULAR             5.00    19.63     1.25     5.00        1    93.16
  849_2            CIRCULAR             5.00    19.63     1.25     5.00        1    93.16
  849_trap         TRAPEZOIDAL          5.00    75.00     2.74    25.00        1   570.63
  853pipe          CIRCULAR             3.00     7.07     0.75     3.00        1     9.88
  853of            135                 10.00   457.99     7.13    70.00        1  1507.08
  854of            136                 10.00   588.45     9.47    80.00        1  3119.61
  861_1            CIRCULAR             4.00    12.57     1.00     4.00        1    38.06
  861_2            CIRCULAR             4.00    12.57     1.00     4.00        1    38.06
  861_trap         TRAPEZOIDAL          5.00    75.00     2.74    25.00        1   758.81
  883culv          CIRCULAR             2.00     3.14     0.50     2.00        1    16.52
  883of            137                  5.00    79.50     3.02    20.00        1   527.13
  889pipe          CIRCULAR             1.25     1.23     0.31     1.25        1     7.76
  889chan          138                 10.00   269.10     6.00    30.00        1  4636.52
  691pipe          CIRCULAR             5.00    19.63     1.25     5.00        1   115.49
  691chan          139                 12.00  1373.50     8.27   140.00        1 23509.56
  892pipe          CIRCULAR             4.00    12.57     1.00     4.00        1    63.84
  892chan          140                  5.00   254.55     3.27    60.00        1  1512.93
  893pipe          CIRCULAR             5.00    19.63     1.25     5.00        1   115.63
  893chan          141                 12.00  1373.50     8.27   140.00        1 23539.00
  55_OVRFLW        142                  5.91  1412.81     4.90   277.20        1 21513.56
  55_5x12_1        RECT_CLOSED          5.00    60.00     1.76    12.00        1   501.15
  55_5x12_2        RECT_CLOSED          5.00    60.00     1.76    12.00        1   501.15
  53_#7TRP         TRAPEZOIDAL         20.00  1800.00    10.29   170.00        1  2530.87
  708pipe          CIRCULAR             3.00     7.07     0.75     3.00        1    35.29
  708chan          143                 10.00  1256.25     6.10   140.00        1  8285.81
  706pipe          CIRCULAR             3.50     9.62     0.88     3.50        1    43.56
  706chan          144                 10.00  1256.25     6.10   140.00        1 12891.87
  704pipe          CIRCULAR             3.50     9.62     0.88     3.50        1    51.48
  704chan          145                 10.00  1256.25     6.10   140.00        1 21207.68
  702pipe          CIRCULAR             3.50     9.62     0.88     3.50        1    51.47
  702chan          146                 10.00  1256.25     6.10   140.00        1 25842.78
  700pipe          CIRCULAR             4.00    12.57     1.00     4.00        1    42.35
  700chan          147                 10.00  1256.25     6.10   140.00        1 26450.98
  707pipe          CIRCULAR             1.25     1.23     0.31     1.25        1     5.67
  707chan          148                 10.00  1256.25     6.10   140.00        1 31662.37
  705pipe          CIRCULAR             1.50     1.77     0.38     1.50        1     7.19
  705chan          149                 10.00  1256.25     6.10   140.00        1 18527.72
  750p             CIRCULAR             1.25     1.23     0.31     1.25        1     4.42
  750c             TRAPEZOIDAL          5.00    65.00     2.56    23.00        1   421.67
  701pipe          CIRCULAR             1.75     2.41     0.44     1.75        1    13.74
  701chan          150                 10.00  1256.25     6.10   140.00        1 31497.69
  740pipe          CIRCULAR             3.00     7.07     0.75     3.00        1    43.30
  740chan          151                 10.00  1256.25     6.10   140.00        1 25717.18
  768pipe          CIRCULAR             4.50    15.90     1.12     4.50        1   143.78
  768chan          152                 10.00  1256.25     6.10   140.00        1 29751.11
  770pipe          CIRCULAR             4.00    12.57     1.00     4.00        1    84.41
  770chan          153                 10.00  1256.25     6.10   140.00        1 18372.48
  769pipe          CIRCULAR             4.50    15.90     1.12     4.50        1   113.51
  769chan          154                 10.00  1256.25     6.10   140.00        1 26235.61
  782pipe          CIRCULAR             2.25     3.98     0.56     2.25        1    15.43
  782chan          155                 10.00  1256.25     6.10   140.00        1  9407.79
  781pipe          CIRCULAR             3.00     7.07     0.75     3.00        1    61.05
  781chan          156                 10.00  1256.25     6.10   140.00        1 11352.45
  780pipe          CIRCULAR             3.00     7.07     0.75     3.00        1    46.11
  780chan          157                 10.00  1256.25     6.10   140.00        1 34959.89
  775pipe          CIRCULAR             3.50     9.62     0.88     3.50        1    48.43
  775chan          158                 10.00  1256.25     6.10   140.00        1 19392.83
  774pipe          CIRCULAR             3.50     9.62     0.88     3.50        1    49.03
  774chan          159                 10.00  1256.25     6.10   140.00        1 24198.60
  773pipe          CIRCULAR             3.50     9.62     0.88     3.50        1    51.37
  773chan          160                 10.00  1256.25     6.10   140.00        1 15574.31
  772pipe          CIRCULAR             3.50     9.62     0.88     3.50        1    61.95
  772chan          161                 10.00  1256.25     6.10   140.00        1 24507.95
  771pipe          CIRCULAR             4.00    12.57     1.00     4.00        1    85.57
  771chan          162                 10.00  1256.25     6.10   140.00        1 23898.49
  DEANPIPE1        CIRCULAR             8.00    50.27     2.00     8.00        1   413.47
  DEANPIPE2        CIRCULAR             8.00    50.27     2.00     8.00        1   413.47
  DEANOVER         163                  6.33   478.53     5.21    81.00        1  2927.61
[...]
  GB_OVER                 1.00   0.01  0.00  0.00  0.00  0.00  0.00  0.99  0.00  0.00
  .21NAT                  1.00   1.00  0.00  0.00  0.00  0.00  0.00  0.00  0.00  0.00
  DEERWPIPE               1.00   1.00  0.00  0.00  0.00  0.00  0.00  0.00  0.00  0.00
  DEER_OVR                1.00   1.00  0.00  0.00  0.00  0.00  0.00  0.00  0.00  0.00
  .13_NAT                 1.00   0.00  0.00  0.00  1.00  0.00  0.00  0.00  0.00  0.00
  PATH_PIPE               1.00   0.00  0.00  0.00  0.00  1.00  0.00  0.00  0.00  0.00
  PATH_OV                 1.00   0.00  0.00  0.00  0.00  0.00  0.00  1.00  0.00  0.00
  BradleyIn               1.00   0.00  0.00  0.00  0.00  1.00  0.00  0.00  0.00  0.00
  Brad_Out                1.00   1.00  0.00  0.00  0.00  0.00  0.00  0.00  0.00  0.00
  BradBox                 1.00   0.00  0.00  0.00  0.00  1.00  0.00  0.00  0.00  0.00
  BradBoxOv               1.00   0.00  0.00  0.00  0.00  0.00  0.00  1.00  0.00  0.00
  s_config2               1.00   1.00  0.00  0.00  0.00  0.00  0.00  0.00  0.00  0.00
  LIB_1                   1.00   1.00  0.00  0.00  0.00  0.00  0.00  0.00  0.00  0.00
  LIB_2                   1.00   1.00  0.00  0.00  0.00  0.00  0.00  0.00  0.00  0.00
  LIB_3                   1.00   1.00  0.00  0.00  0.00  0.00  0.00  0.00  0.00  0.00
  LIB_4                   1.00   0.00  0.00  0.00  0.01  0.99  0.00  0.00  0.00  0.00
  LIB_5                   1.00   0.00  0.00  0.00  0.00  1.00  0.00  0.00  0.00  0.00
  LIB_6                   1.00   1.00  0.00  0.00  0.00  0.00  0.00  0.00  0.00  0.00
  LIB_7                   1.00   1.00  0.00  0.00  0.00  0.00  0.00  0.00  0.00  0.00
  LIB_8                   1.00   1.00  0.00  0.00  0.00  0.00  0.00  0.00  0.00  0.00
  LIB_9                   1.00   1.00  0.00  0.00  0.00  0.00  0.00  0.00  0.00  0.00
  LIB_10                  1.00   1.00  0.00  0.00  0.00  0.00  0.00  0.00  0.00  0.00
  LIB_12                  1.00   1.00  0.00  0.00  0.00  0.00  0.00  0.00  0.00  0.00
  
  
  *************************
  Conduit Surcharge Summary
  *************************
  
  ----------------------------------------------------------------------------
                                                           Hours        Hours 
                         --------- Hours Full --------   Above Full   Capacity
  Conduit                Both Ends  Upstream  Dnstream   Normal Flow   Limited
  ----------------------------------------------------------------------------
  583                         3.93      3.95      3.93      0.02         0.01
  591                         3.94      3.94      3.95      0.01         0.01
  592                         3.95      3.95      3.96      3.93         3.95
  593                         3.93      3.96      3.93      0.02         0.01
  594                         3.95      3.95      3.95      3.94         3.95
  595                         3.95      3.95      3.95      0.01         0.01
  596                         3.94      3.94      3.95      0.01         0.01
  597                         3.92      3.95      3.92      0.03         0.01
  598                         0.01      3.94      0.01      3.93         0.01
  601                         3.93      3.96      3.93      0.03         0.01
  602                         0.01      3.95      0.01      3.95         0.01
  604                         0.01      3.96      0.01      0.01         0.01
  606                         3.93      3.93      3.94      3.90         3.93
  607                         0.01      3.94      0.01      3.94         0.01
  608                         3.95      3.96      3.95      3.95         3.95
  609                         0.01      3.95      0.01      0.01         0.01
  612                         3.92      3.95      3.92      0.02         0.01
  613                         0.01      3.92      0.01      0.01         0.01
  615                         3.92      3.92      3.92      0.01         0.01
  616                         0.01      3.94      0.01      3.94         0.01
  618                         0.01      3.91      0.01      3.91         0.01
  619                         0.01      3.93      0.01      0.01         0.01
  620                         0.01      3.94      0.01      0.01         0.01
  622                         0.01      3.93      0.01      0.01         0.01
  623                         0.01      3.93      0.01      0.01         0.01
  624                         0.01      3.93      0.01      0.01         0.01
  626                         0.01      3.93      0.01      0.01         0.01
  627                         0.01      3.95      0.01      0.01         0.01
  628                         0.01      0.01      3.96      0.01         0.01
  629                         3.95      3.95      3.95      3.93         3.95
  630                         0.01      3.95      0.01      0.01         0.01
  631                         3.93      3.93      3.95      3.88         3.93
  632                         0.01      3.94      0.01      0.01         0.01
  633                         0.01      0.01      3.96      0.01         0.01
  634                         0.01      3.93      0.01      0.01         0.01
  712                         0.01      3.92      0.01      0.01         0.01
  713                         0.01      0.01      3.98      0.01         0.01
  714                         0.01      3.97      0.01      0.01         0.01
  748                         0.01      0.01      3.92      0.01         0.01
  750                         0.01      0.01      3.93      0.01         0.01
  753                         0.01      0.01      3.94      0.01         0.01
  762                         3.93      3.95      3.93      3.92         0.01
  635                         3.92      3.94      3.92      3.92         3.92
  636                         0.01      3.92      0.01      3.92         0.01
  637                         0.01      3.94      0.01      3.94         0.01
  641                         3.93      3.93      3.95      0.01         0.01
  642                         3.94      3.95      3.94      0.02         0.01
  643                         3.94      3.94      3.95      0.01         0.01
  644                         3.50      3.50      3.97      0.01         0.01
  647                         0.01      3.94      0.01      3.94         0.01
  650                         3.94      3.96      3.94      3.92         0.01
  655                         3.93      3.93      3.96      0.01         0.01
  656                         3.96      3.96      3.96      3.96         3.96
  657                         3.96      3.96      3.98      0.01         0.01
  658                         3.93      3.93      3.95      3.88         3.93
  659                         3.94      3.95      3.94      0.01         0.01
  660                         0.01      3.94      0.01      3.94         0.01
  662                         3.94      3.94      3.95      0.01         0.01
  663                         3.93      3.95      3.93      3.94         3.93
  664                         3.93      3.93      3.95      0.01         0.01
  665                         3.93      3.93      3.95      0.01         0.01
  666                         0.01      3.95      0.01      0.01         0.01
  667                         3.95      3.95      3.95      3.94         3.95
  668                         3.95      3.95      3.95      3.93         0.01
  669                         3.94      3.95      3.94      3.94         3.94
  670                         0.01      3.94      0.01      0.01         0.01
  672                         0.01      0.01      3.93      0.01         0.01
  673                         3.93      3.93      3.94      0.01         0.01
  674                         0.01      3.95      0.01      0.01         0.01
  675                         3.93      3.94      3.93      0.01         0.01
  676                         3.95      3.97      3.95      0.02         0.01
  677                         3.94      3.94      3.94      3.89         0.01
  678                         0.01      3.94      0.01      3.93         0.01
  679                         0.01      3.94      0.01      3.93         0.01
  680                         3.92      3.95      3.92      0.01         0.01
  681                         3.92      3.92      3.94      0.01         0.01
  682                         0.01      3.94      0.01      0.01         0.01
  684                         3.96      3.96      3.97      3.95         0.01
  685                         0.01      3.94      0.01      0.01         0.01
  686                         3.92      3.92      3.93      0.02         0.01
  687                         3.93      3.94      3.93      0.01         0.01
  688                         0.01      0.01      3.93      3.92         0.01
  690                         0.01      3.95      0.01      3.95         0.01
  694                         0.01      3.94      0.01      0.01         0.01
  695                         3.92      3.92      3.94      3.89         3.92
  696                         3.93      3.94      3.93      3.91         0.01
  702                         0.01      0.01      3.94      0.01         0.01
  703                         0.01      3.94      0.01      0.01         0.01
  825                         0.01      0.01      3.95      0.01         0.01
  826                         0.01      0.01      3.92      0.01         0.01
  536                         3.95      3.95      3.95      3.92         3.95
  537                         0.01      3.95      0.01      3.95         0.01
  543                         3.95      3.95      3.95      0.01         0.01
  544                         0.01      3.95      0.01      3.95         0.01
  548                         3.95      3.95      3.95      3.92         3.94
  549                         0.01      3.93      0.01      3.93         0.01
  551                         3.94      3.96      3.94      0.04         0.01
  552                         3.94      3.94      3.94      3.91         0.01
  557                         3.94      3.94      3.96      3.89         3.94
  558                         3.95      3.96      3.95      3.96         3.95
  559                         3.95      3.95      3.96      3.92         3.95
  560                         3.95      3.96      3.95      0.01         0.01
  561                         3.92      3.95      3.92      0.03         0.01
  563                         3.92      3.93      3.92      0.01         0.01
  564                         3.94      3.94      3.94      0.01         0.01
  565                         3.92      3.94      3.92      3.92         3.92
  566                         3.92      3.92      3.95      0.01         0.01
  571                         3.95      3.95      3.96      0.01         0.01
  572                         3.95      3.96      3.95      0.01         0.01
  573                         3.95      3.95      3.95      3.95         3.95
  582                         3.94      3.94      3.95      3.92         0.01
  717                         3.97      3.97      3.97      3.96         3.96
  1087                        0.01      0.01      3.93      0.01         0.01
  1051                        0.01      3.94      0.01      3.94         0.01
  817pipe                     3.97      3.97      3.97      3.97         3.97
  817chan                     3.92      3.93      3.92      3.92         3.92
  816pipe                     3.97      3.97      3.98      3.92         3.92
  816chan                     3.92      3.92      3.94      3.89         3.92
  815pipe1                    3.97      3.98      3.97      0.05         0.04
  815chan                     3.93      3.94      3.93      0.03         0.01
  815pipe2                    3.97      3.98      3.97      0.05         0.04
  814pipe                     0.01      3.97      0.01      3.97         0.01
  814chan                     0.01      3.93      0.01      3.93         0.01
  810pipe1                    0.01      0.01      3.97      3.95         0.01
  810chan                     0.01      0.01      3.94      3.93         0.01
  810pipe2                    0.01      0.01      3.97      3.95         0.01
  789pipe                     3.97      3.97      3.98      3.95         3.94
  789of                       3.95      3.95      3.96      3.95         3.94
  803pipe                     3.95      3.95      3.97      0.06         0.01
  803chan                     3.91      3.91      3.94      0.05         0.01
  830pipe                     0.01      3.98      0.01      0.01         0.01
  830of                       0.01      3.96      0.01      0.01         0.01
  831pipe                     0.01      0.01      3.97      0.01         0.01
  831of                       0.01      0.01      3.96      0.01         0.01
  827pipe                     0.01      0.01      3.96      0.01         0.01
  827of                       0.01      0.01      3.95      0.01         0.01
  51OVRFLW                    0.01      3.95      0.01      3.96         0.01
  51_7x10_1                   0.01      3.97      0.01      3.97         0.01
  51_7x10_2                   0.01      3.97      0.01      3.97         0.01
  708_modify                  0.01      0.01      3.95      0.01         0.01
  709_modify                  0.01      3.95      0.01      0.01         0.01
  710_modify                  0.01      0.01      3.93      0.01         0.01
  47PIPE                      0.01      3.99      0.01      3.98         0.01
  47OVRFLW                    0.01      3.93      0.01      3.94         0.01
  804pipe                     0.01      0.01      3.96      3.93         0.01
  804chan                     0.01      0.01      3.91      3.91         0.01
  812pipe                     0.01      0.01      3.97      3.94         0.01
  812chan                     0.01      0.01      3.93      0.01         0.01
  811pipe                     0.01      3.96      0.01      3.96         0.01
  811chan                     0.01      3.93      0.01      3.93         0.01
  838of                       0.01      0.01      3.94      3.93         0.01
  838pip                      0.01      0.01      3.97      3.94         0.01
  839chan                     3.94      3.98      3.94      0.05         0.01
  839pipe                     3.97      3.99      3.97      0.06         0.04
  838chan                     0.01      3.93      0.01      3.93         0.01
  838pipe                     0.01      3.97      0.01      3.95         0.01
  36inch_1                    3.97      3.98      3.97      0.03         0.02
  54inch_1                    3.97      3.98      3.97      0.03         0.02
  36inch_2                    3.97      3.97      3.97      0.04         0.03
  54inch_2                    3.96      3.97      3.96      0.03         0.02
  849_1                       0.01      0.01      3.98      3.97         0.01
  849_2                       0.01      0.01      3.98      3.97         0.01
  849_trap                    0.01      0.01      3.97      3.96         0.01
  853pipe                     0.01      3.98      0.01      3.98         0.01
  853of                       0.01      3.96      0.01      3.96         0.01
  883culv                     0.01      0.01      3.96      0.01         0.01
  883of                       0.01      0.01      3.95      3.93         0.01
  889pipe                     3.96      3.98      3.96      3.98         3.96
  889chan                     0.01      3.93      0.01      3.93         0.01
  892pipe                     0.01      0.01      3.96      3.94         0.01
  892chan                     0.01      0.01      3.94      3.93         0.01
  893pipe                     0.01      3.96      0.01      3.96         0.01
  893chan                     0.01      3.93      0.01      3.93         0.01
  708pipe                     0.01      0.01      3.95      3.91         0.01
  708chan                     0.01      0.01      3.91      3.91         0.01
  706pipe                     3.93      3.95      3.93      3.95         3.93
  706chan                     3.87      3.91      3.87      3.91         3.87
  704pipe                     0.01      3.93      0.01      3.92         0.01
  704chan                     0.01      0.01      3.87      3.87         0.01
  707pipe                     3.95      3.98      3.95      0.08         0.04
  707chan                     3.91      3.94      3.91      0.04         0.01
  705pipe                     3.96      3.98      3.96      3.98         0.09
  705chan                     3.87      3.94      3.87      3.93         0.01
  750p                        0.01      3.97      0.01      3.97         0.01
  750c                        0.01      3.93      0.01      3.93         0.01
  701pipe                     0.01      3.98      0.01      3.98         0.01
  701chan                     0.01      3.94      0.01      3.94         0.01
  740pipe                     3.96      3.96      3.99      3.94         3.92
  740chan                     3.92      3.92      3.97      3.90         3.92
  768pipe                     0.01      3.98      0.01      3.98         0.01
  768chan                     0.01      3.96      0.01      3.96         0.01
  770pipe                     3.97      3.97      3.97      0.04         0.03
  770chan                     3.94      3.94      3.94      0.01         0.01
  769pipe                     3.97      3.97      3.98      3.96         3.94
  769chan                     3.94      3.94      3.96      3.92         3.94
  782pipe                     3.97      3.98      3.97      3.98         3.97
  782chan                     3.94      3.95      3.94      3.95         3.94
  781pipe                     3.97      3.97      3.97      0.05         0.04
  781chan                     3.93      3.94      3.93      3.93         0.01
  780pipe                     3.96      3.97      3.96      3.94         3.93
  780chan                     3.93      3.93      3.94      0.01         0.01
  775pipe                     3.98      3.99      3.98      0.04         0.03
  775chan                     3.96      3.98      3.96      0.04         0.01
  774pipe                     3.98      3.98      3.98      3.98         3.98
  774chan                     3.95      3.96      3.95      3.95         3.95
  773pipe                     3.97      3.98      3.97      0.04         0.03
  773chan                     3.94      3.95      3.94      0.03         0.01
  772pipe                     3.97      3.97      3.98      3.94         3.94
  772chan                     3.94      3.94      3.96      3.91         3.94
  771pipe                     3.97      3.98      3.97      0.04         0.03
  771chan                     3.94      3.96      3.94      0.02         0.01
  TEUT_OVF                    0.01      0.01      3.96      3.96         0.01
  TEUTPIPE1                   0.01      0.01      3.97      3.97         0.01
  GBPIPE                      0.01      3.98      0.01      3.98         0.01
  GB_OVER                     0.01      3.97      0.01      3.97         0.01
  .13_NAT                     0.01      0.01      3.97      0.01         0.01
  PATH_PIPE                   0.01      3.99      0.01      3.99         0.01
  PATH_OV                     0.01      3.97      0.01      3.98         0.01
  BradleyIn                   0.01      4.00      0.01      0.01         0.01
  BradBox                     0.01      4.00      0.01      0.01         0.01
  BradBoxOv                   0.01      3.99      0.01      3.99         0.01
  LIB_4                       0.01      0.01      3.95      3.95         0.01
  LIB_5                       0.01      3.95      0.01      3.96         0.01
  

  Analysis begun on:  Fri May 22 22:28:59 2015
  Analysis ended on:  Fri May 22 22:29:23 2015
  Total elapsed time: 00:00:24